Version 4
SHEET 1 880 680
WIRE -80 128 -224 128
WIRE 48 128 -80 128
WIRE 368 128 304 128
WIRE 416 128 368 128
WIRE -224 144 -224 128
WIRE -80 160 -80 128
WIRE 368 176 368 128
WIRE -224 272 -224 224
WIRE -80 272 -80 224
WIRE -80 272 -224 272
WIRE -32 272 -80 272
WIRE 176 272 176 224
WIRE 176 272 -32 272
WIRE 368 272 368 240
WIRE 368 272 176 272
FLAG -32 272 0
SYMBOL voltage -224 128 R0
WINDOW 123 0 0 Left 0
WINDOW 39 0 0 Left 0
SYMATTR InstName V1
SYMATTR Value 7
SYMBOL cap -96 160 R0
SYMATTR InstName C1
SYMATTR Value 0,33u
SYMBOL cap 352 176 R0
SYMATTR InstName C2
SYMATTR Value 0,1u
SYMBOL 7805 176 128 R0
SYMATTR InstName U1
TEXT -256 304 Left 2 !.tran 2
